@<TRIPOS>MOLECULE
S2X
   40    42     1     0     0
SMALL
resp


@<TRIPOS>ATOM
      1 C1           2.7940     2.6190    -0.3730 ca         1 S2X       0.506605
      2 N1           1.5200     2.9120    -0.1780 nb         1 S2X      -0.682783
      3 C2           3.2660     1.3290    -0.6870 ca         1 S2X      -0.759260
      4 C3           2.3580     0.2850    -0.8030 ca         1 S2X       0.478436
      5 C4           0.9780     0.5740    -0.5930 ca         1 S2X      -0.408078
      6 C5           0.6110     1.9160    -0.2880 ca         1 S2X       0.544588
      7 C6          -0.8000     2.2440    -0.0770 ca         1 S2X       0.544588
      8 C7          -0.0390    -0.4350    -0.6640 ca         1 S2X      -0.136985
      9 C8          -1.3550    -0.1280    -0.4730 ca         1 S2X      -0.136985
     10 C9          -1.7840     1.2140    -0.1930 ca         1 S2X      -0.408078
     11 N2          -1.1060     3.5240     0.2210 nb         1 S2X      -0.682783
     12 C10         -3.1540     1.5800     0.0040 ca         1 S2X       0.478436
     13 C11         -3.4330     2.9090     0.3080 ca         1 S2X      -0.759260
     14 C12         -2.3810     3.8310     0.4090 ca         1 S2X       0.506605
     15 C13          2.8010    -1.0790    -1.2000 ce         1 S2X       0.266337
     16 N3           3.7450    -1.7910    -0.6950 n2         1 S2X      -0.496946
     17 N4           4.4380    -1.3150     0.3650 n          1 S2X       0.043704
     18 H1           3.9260    -1.0090     1.1920 hn         1 S2X       0.237232
     19 C14          5.8070    -1.5010     0.4740 c          1 S2X       0.230289
     20 S1           6.8410    -0.5770     1.3830 s          1 S2X      -0.440624
     21 N5           6.2340    -2.5460    -0.3130 n          1 S2X      -0.674276
     22 H2           5.5700    -3.0530    -0.8900 hn         1 S2X       0.362162
     23 H3           6.9670    -3.1100     0.0960 hn         1 S2X       0.362162
     24 C15         -4.2370     0.6000    -0.1290 ce         1 S2X       0.266337
     25 N6          -4.6240    -0.1110     0.8760 n2         1 S2X      -0.496946
     26 N7          -5.6500    -0.9650     0.6870 n          1 S2X       0.043704
     27 H4          -6.6200    -0.6730     0.8040 hn         1 S2X       0.237232
     28 C16         -5.4540    -2.2780     0.3100 c          1 S2X       0.230289
     29 S2          -4.0360    -2.7190    -0.4620 s          1 S2X      -0.440624
     30 N8          -6.4680    -3.1150     0.6050 n          1 S2X      -0.674276
     31 H5          -7.2860    -2.7860     1.1020 hn         1 S2X       0.362162
     32 H6          -6.3700    -4.0910     0.3690 hn         1 S2X       0.362162
     33 H7           3.5240     3.4240    -0.2850 h4         1 S2X       0.057707
     34 H8           4.3310     1.1530    -0.8390 ha         1 S2X       0.289047
     35 H9           0.2440    -1.4660    -0.8730 ha         1 S2X       0.174711
     36 H10         -2.1000    -0.9210    -0.5360 ha         1 S2X       0.174711
     37 H11         -4.4620     3.2310     0.4660 ha         1 S2X       0.289047
     38 H12         -2.6270     4.8630     0.6580 h4         1 S2X       0.057707
     39 H13          2.2540    -1.5340    -2.0270 h4         1 S2X       0.045971
     40 H14         -4.7250     0.4700    -1.0950 h4         1 S2X       0.045971
@<TRIPOS>BOND
     1     1     2 ar  
     2     1     3 ar  
     3     1    33 1   
     4     2     6 ar  
     5     3     4 ar  
     6     3    34 1   
     7     4     5 ar  
     8     4    15 1   
     9     5     6 ar  
    10     5     8 ar  
    11     6     7 ar  
    12     7    10 ar  
    13     7    11 ar  
    14     8     9 ar  
    15     8    35 1   
    16     9    10 ar  
    17     9    36 1   
    18    10    12 ar  
    19    11    14 ar  
    20    12    13 ar  
    21    12    24 1   
    22    13    14 ar  
    23    13    37 1   
    24    14    38 1   
    25    15    16 2   
    26    15    39 1   
    27    16    17 1   
    28    17    18 1   
    29    17    19 1   
    30    19    20 2   
    31    19    21 1   
    32    21    22 1   
    33    21    23 1   
    34    24    25 2   
    35    24    40 1   
    36    25    26 1   
    37    26    27 1   
    38    26    28 1   
    39    28    29 2   
    40    28    30 1   
    41    30    31 1   
    42    30    32 1   
@<TRIPOS>SUBSTRUCTURE
     1 S2X         1 TEMP              0 ****  ****    0 ROOT
